src/Test_Network/Master.dss
// Master file for 8500-Node IEEE Test Feeder Case
// Balanced Load Case

Clear

New Circuit.IEEE8500

! Make the source stiff with small impedance
~ pu=1.05  r1=0  x1=0.001  r0=0  x0=0.001

Redirect  LineCodes2.dss
!Redirect  Triplex_Linecodes.dss

Redirect  MainLineconnection.dss
Redirect Tie_Lines.dss    !Tie Lines


Redirect  Lines.dss
Redirect  Transformers.dss
!Redirect  LoadXfmrs.dss    ! Load Transformers
!Redirect  Triplex_Lines.dss
!Redirect  Loads.dss     ! Balanced Loads
Redirect  Capacitors.dss
Redirect  CapControls.dss
Redirect  Regulators.dss


Redirect  C1_Lines.dss
Redirect  C1_Transformers.dss
!Redirect  C1_LoadXfmrs.dss    ! Load Transformers
!Redirect  C1_Triplex_Lines.dss
!Redirect  C1_Loads.dss     ! Balanced Loads
Redirect  C1_Capacitors.dss
Redirect  C1_CapControls.dss
Redirect  C1_Regulators.dss

Redirect  C2_Lines.dss
Redirect  C2_Transformers.dss
!Redirect  C2_LoadXfmrs.dss    ! Load Transformers
!Redirect  C2_Triplex_Lines.dss
!Redirect  C2_Loads.dss     ! Balanced Loads
Redirect  C2_Capacitors.dss
Redirect  C2_CapControls.dss
Redirect  C2_Regulators.dss

Redirect  C3_Lines.dss
Redirect  C3_Transformers.dss
!Redirect  C3_LoadXfmrs.dss    ! Load Transformers
!Redirect  C3_Triplex_Lines.dss
!Redirect  C3_Loads.dss     ! Balanced Loads
Redirect  C3_Capacitors.dss
Redirect  C3_CapControls.dss
Redirect  C3_Regulators.dss

Redirect  C4_Lines.dss
Redirect  C4_Transformers.dss
!Redirect  C4_LoadXfmrs.dss    ! Load Transformers
!Redirect  C4_Triplex_Lines.dss
!Redirect  C4_Loads.dss     ! Balanced Loads
Redirect  C4_Capacitors.dss
Redirect  C4_CapControls.dss
Redirect  C4_Regulators.dss

Redirect  C5_Lines.dss
Redirect  C5_Transformers.dss
!Redirect  C5_LoadXfmrs.dss    ! Load Transformers
!Redirect  C5_Triplex_Lines.dss
!Redirect  C5_Loads.dss     ! Balanced Loads
Redirect  C5_Capacitors.dss
Redirect  C5_CapControls.dss
Redirect  C5_Regulators.dss

Redirect  C6_Lines.dss
Redirect  C6_Transformers.dss
!Redirect  C6_LoadXfmrs.dss    ! Load Transformers
!Redirect  C6_Triplex_Lines.dss
!Redirect  C6_Loads.dss     ! Balanced Loads
Redirect  C6_Capacitors.dss
Redirect  C6_CapControls.dss
Redirect  C6_Regulators.dss

Redirect  C7_Lines.dss
Redirect  C7_Transformers.dss
!Redirect  C7_LoadXfmrs.dss    ! Load Transformers
!Redirect  C7_Triplex_Lines.dss
!Redirect  C7_Loads.dss     ! Balanced Loads
Redirect  C7_Capacitors.dss
Redirect  C7_CapControls.dss
Redirect  C7_Regulators.dss

Redirect  C8_Lines.dss
Redirect  C8_Transformers.dss
!Redirect  C8_LoadXfmrs.dss    ! Load Transformers
!Redirect  C8_Triplex_Lines.dss
!Redirect  C8_Loads.dss     ! Balanced Loads
Redirect  C8_Capacitors.dss
Redirect  C8_CapControls.dss
Redirect  C8_Regulators.dss

Redirect  C9_Lines.dss
Redirect  C9_Transformers.dss
!Redirect  C9_LoadXfmrs.dss    ! Load Transformers
!Redirect  C9_Triplex_Lines.dss
!Redirect  C9_Loads.dss     ! Balanced Loads
Redirect  C9_Capacitors.dss
Redirect  C9_CapControls.dss
Redirect  C9_Regulators.dss

Redirect  C10_Lines.dss
Redirect  C10_Transformers.dss
!Redirect  C10_LoadXfmrs.dss    ! Load Transformers
!Redirect  C10_Triplex_Lines.dss
!Redirect  C10_Loads.dss     ! Balanced Loads
Redirect  C10_Capacitors.dss
Redirect  C10_CapControls.dss
Redirect  C10_Regulators.dss

Redirect  C11_Lines.dss
Redirect  C11_Transformers.dss
!Redirect  C11_LoadXfmrs.dss    ! Load Transformers
!Redirect  C11_Triplex_Lines.dss
!Redirect  C11_Loads.dss     ! Balanced Loads
Redirect  C11_Capacitors.dss
Redirect  C11_CapControls.dss
Redirect  C11_Regulators.dss

! Accumulated loads
Redirect  LoadsAccumulated.dss     ! Balanced Loads


! Let DSS estimate the voltage bases
Set voltagebases=[115, 12.47,  0.48, 0.208]
Calcvoltagebases     ! This also establishes the bus list

! Load in bus coordintes now that bus list is established
Buscoords  Coordinates\ModifiedNodesBuscoords.dss
Buscoords  Coordinates\Buscoords.dss
Buscoords  Coordinates\C1_Buscoords.dss
Buscoords  Coordinates\C2_Buscoords.dss
Buscoords  Coordinates\C3_Buscoords.dss
Buscoords  Coordinates\C4_Buscoords.dss
Buscoords  Coordinates\C5_Buscoords.dss
Buscoords  Coordinates\C6_Buscoords.dss
Buscoords  Coordinates\C7_Buscoords.dss
Buscoords  Coordinates\C8_Buscoords.dss
Buscoords  Coordinates\C9_Buscoords.dss
Buscoords  Coordinates\C10_Buscoords.dss
Buscoords  Coordinates\C11_Buscoords.dss
